<?xml version="1.0" encoding="ISO-8859-1"?>
<febio_spec version="4.0">
	<Module type="solid">
		<units>mm-N-s</units>
	</Module>
	<Control>
		<analysis>DYNAMIC</analysis>
		<time_steps>10</time_steps>
		<step_size>0.1</step_size>
		<plot_zero_state>0</plot_zero_state>
		<plot_range>0,-1</plot_range>
		<plot_level>PLOT_MAJOR_ITRS</plot_level>
		<output_level>OUTPUT_MAJOR_ITRS</output_level>
		<plot_stride>1</plot_stride>
		<output_stride>1</output_stride>
		<adaptor_re_solve>1</adaptor_re_solve>
		<time_stepper type="default">
			<max_retries>50</max_retries>
			<opt_iter>11</opt_iter>
			<dtmin>0</dtmin>
			<dtmax>1e-05</dtmax>
			<aggressiveness>0</aggressiveness>
			<cutback>0.5</cutback>
			<dtforce>0</dtforce>
		</time_stepper>
		<solver type="explicit-solid">
			<symmetric_stiffness>preferred</symmetric_stiffness>
			<equation_scheme>staggered</equation_scheme>
			<equation_order>default</equation_order>
			<optimize_bw>0</optimize_bw>
			<mass_lumping>2</mass_lumping>
			<dyn_damping>1</dyn_damping>
		</solver>
	</Control>
	<Globals>
		<Constants>
			<T>0</T>
			<P>0</P>
			<R>8.31446e-06</R>
			<Fc>9.64853e-05</Fc>
		</Constants>
	</Globals>
	<Material>
		<material id="1" name="Material1" type="reactive plasticity">
			<density>0.01</density>
			<isochoric>1</isochoric>
			<rtol>0.0001</rtol>
			<secant_tangent>1</secant_tangent>
			<elastic type="neo-Hookean">
				<E>200000</E>
				<v>0.3</v>
			</elastic>
			<yield_criterion type="DC von Mises stress"/>
			<flow_curve type="PFC paper">
				<Y0>887</Y0>
				<Ymax>0</Ymax>
				<w0>1</w0>
				<we>0</we>
				<nf>1</nf>
				<r>0.9</r>
			</flow_curve>
		</material>
		<material id="2" name="Material2" type="reactive plasticity">
			<density>0.01</density>
			<isochoric>1</isochoric>
			<rtol>0.0001</rtol>
			<secant_tangent>1</secant_tangent>
			<elastic type="neo-Hookean">
				<E>200000</E>
				<v>0.3</v>
			</elastic>
			<yield_criterion type="DC von Mises stress"/>
			<flow_curve type="PFC paper">
				<Y0>200</Y0>
				<Ymax>0</Ymax>
				<w0>1</w0>
				<we>0</we>
				<nf>1</nf>
				<r>0.9</r>
			</flow_curve>
		</material>
	</Material>
	<Mesh>
		<Nodes name="Object1">
			<node id="1">1,0,0</node>
			<node id="2">0.5,0.866025404,0</node>
			<node id="3">0.15,0.259807621,0</node>
			<node id="4">0.3,0,0</node>
			<node id="5">1,0,1</node>
			<node id="6">0.5,0.866025404,1</node>
			<node id="7">0.15,0.259807621,1</node>
			<node id="8">0.3,0,1</node>
			<node id="9">0.965925826,0.258819045,0</node>
			<node id="10">0.866025404,0.5,0</node>
			<node id="11">0.707106781,0.707106781,0</node>
			<node id="12">0.5,0.866025404,0.25</node>
			<node id="13">0.5,0.866025404,0.5</node>
			<node id="14">0.5,0.866025404,0.75</node>
			<node id="15">0.707106781,0.707106781,1</node>
			<node id="16">0.866025404,0.5,1</node>
			<node id="17">0.965925826,0.258819045,1</node>
			<node id="18">1,0,0.75</node>
			<node id="19">1,0,0.5</node>
			<node id="20">1,0,0.25</node>
<!-- ... 105 like lines cut -->
		</Nodes>
		<Nodes name="Object4">
			<node id="126">0.8,0,1</node>
			<node id="127">0.4,0.692820323,1</node>
			<node id="128">0.15,0.259807621,1</node>
			<node id="129">0.3,0,1</node>
			<node id="130">0.8,0,2</node>
			<node id="131">0.4,0.692820323,2</node>
			<node id="132">0.15,0.259807621,2</node>
			<node id="133">0.3,0,2</node>
			<node id="134">0.772740661,0.207055236,1</node>
			<node id="135">0.692820323,0.4,1</node>
			<node id="136">0.565685425,0.565685425,1</node>
			<node id="137">0.4,0.692820323,1.25</node>
			<node id="138">0.4,0.692820323,1.5</node>
			<node id="139">0.4,0.692820323,1.75</node>
			<node id="140">0.565685425,0.565685425,2</node>
			<node id="141">0.692820323,0.4,2</node>
			<node id="142">0.772740661,0.207055236,2</node>
			<node id="143">0.8,0,1.75</node>
			<node id="144">0.8,0,1.5</node>
			<node id="145">0.8,0,1.25</node>
<!-- ... 105 like lines cut -->
		</Nodes>
		<Elements type="hex8" name="Part4">
			<elem id="1">1,9,87,41,20,45,99,74</elem>
			<elem id="2">9,10,88,87,45,46,100,99</elem>
			<elem id="3">10,11,89,88,46,47,101,100</elem>
			<elem id="4">11,2,21,89,47,12,54,101</elem>
			<elem id="5">41,87,84,40,74,99,102,73</elem>
			<elem id="6">87,88,85,84,99,100,103,102</elem>
			<elem id="7">88,89,86,85,100,101,104,103</elem>
			<elem id="8">89,21,22,86,101,54,55,104</elem>
			<elem id="9">40,84,81,39,73,102,105,72</elem>
			<elem id="10">84,85,82,81,102,103,106,105</elem>
			<elem id="11">85,86,83,82,103,104,107,106</elem>
			<elem id="12">86,22,23,83,104,55,56,107</elem>
			<elem id="13">39,81,32,4,72,105,65,33</elem>
			<elem id="14">81,82,31,32,105,106,64,65</elem>
			<elem id="15">82,83,30,31,106,107,63,64</elem>
			<elem id="16">83,23,3,30,107,56,24,63</elem>
			<elem id="17">20,45,99,74,19,48,108,77</elem>
			<elem id="18">45,46,100,99,48,49,109,108</elem>
			<elem id="19">46,47,101,100,49,50,110,109</elem>
			<elem id="20">47,12,54,101,50,13,57,110</elem>
<!-- ... 44 like lines cut -->
		</Elements>
		<Elements type="hex8" name="Part15">
			<elem id="65">126,134,212,166,145,170,224,199</elem>
			<elem id="66">134,135,213,212,170,171,225,224</elem>
			<elem id="67">135,136,214,213,171,172,226,225</elem>
			<elem id="68">136,127,146,214,172,137,179,226</elem>
			<elem id="69">166,212,209,165,199,224,227,198</elem>
			<elem id="70">212,213,210,209,224,225,228,227</elem>
			<elem id="71">213,214,211,210,225,226,229,228</elem>
			<elem id="72">214,146,147,211,226,179,180,229</elem>
			<elem id="73">165,209,206,164,198,227,230,197</elem>
			<elem id="74">209,210,207,206,227,228,231,230</elem>
			<elem id="75">210,211,208,207,228,229,232,231</elem>
			<elem id="76">211,147,148,208,229,180,181,232</elem>
			<elem id="77">164,206,157,129,197,230,190,158</elem>
			<elem id="78">206,207,156,157,230,231,189,190</elem>
			<elem id="79">207,208,155,156,231,232,188,189</elem>
			<elem id="80">208,148,128,155,232,181,149,188</elem>
			<elem id="81">145,170,224,199,144,173,233,202</elem>
			<elem id="82">170,171,225,224,173,174,234,233</elem>
			<elem id="83">171,172,226,225,174,175,235,234</elem>
			<elem id="84">172,137,179,226,175,138,182,235</elem>
<!-- ... 44 like lines cut -->
		</Elements>
		<Surface name="ZeroDisplacement1">
			<quad4 id="1">4,32,81,39</quad4>
			<quad4 id="2">32,31,82,81</quad4>
			<quad4 id="3">31,30,83,82</quad4>
			<quad4 id="4">30,3,23,83</quad4>
			<quad4 id="5">39,81,84,40</quad4>
			<quad4 id="6">81,82,85,84</quad4>
			<quad4 id="7">82,83,86,85</quad4>
			<quad4 id="8">83,23,22,86</quad4>
			<quad4 id="9">40,84,87,41</quad4>
			<quad4 id="10">84,85,88,87</quad4>
			<quad4 id="11">85,86,89,88</quad4>
			<quad4 id="12">86,22,21,89</quad4>
			<quad4 id="13">41,87,9,1</quad4>
			<quad4 id="14">87,88,10,9</quad4>
			<quad4 id="15">88,89,11,10</quad4>
			<quad4 id="16">89,21,2,11</quad4>
		</Surface>
		<Surface name="ZeroDisplacement2">
			<quad4 id="1">130,142,215,167</quad4>
			<quad4 id="2">142,141,216,215</quad4>
			<quad4 id="3">141,140,217,216</quad4>
			<quad4 id="4">140,131,154,217</quad4>
			<quad4 id="5">167,215,218,168</quad4>
			<quad4 id="6">215,216,219,218</quad4>
			<quad4 id="7">216,217,220,219</quad4>
			<quad4 id="8">217,154,153,220</quad4>
			<quad4 id="9">168,218,221,169</quad4>
			<quad4 id="10">218,219,222,221</quad4>
			<quad4 id="11">219,220,223,222</quad4>
			<quad4 id="12">220,153,152,223</quad4>
			<quad4 id="13">169,221,161,133</quad4>
			<quad4 id="14">221,222,162,161</quad4>
			<quad4 id="15">222,223,163,162</quad4>
			<quad4 id="16">223,152,132,163</quad4>
		</Surface>
		<Surface name="PrescribedDisplacement3">
			<quad4 id="1">130,142,215,167</quad4>
			<quad4 id="2">142,141,216,215</quad4>
			<quad4 id="3">141,140,217,216</quad4>
			<quad4 id="4">140,131,154,217</quad4>
			<quad4 id="5">167,215,218,168</quad4>
			<quad4 id="6">215,216,219,218</quad4>
			<quad4 id="7">216,217,220,219</quad4>
			<quad4 id="8">217,154,153,220</quad4>
			<quad4 id="9">168,218,221,169</quad4>
			<quad4 id="10">218,219,222,221</quad4>
			<quad4 id="11">219,220,223,222</quad4>
			<quad4 id="12">220,153,152,223</quad4>
			<quad4 id="13">169,221,161,133</quad4>
			<quad4 id="14">221,222,162,161</quad4>
			<quad4 id="15">222,223,163,162</quad4>
			<quad4 id="16">223,152,132,163</quad4>
		</Surface>
		<Surface name="PeriodicBoundary2Primary">
			<quad4 id="1">129,164,197,158</quad4>
			<quad4 id="2">164,165,198,197</quad4>
			<quad4 id="3">165,166,199,198</quad4>
			<quad4 id="4">166,126,145,199</quad4>
			<quad4 id="5">158,197,200,159</quad4>
			<quad4 id="6">197,198,201,200</quad4>
			<quad4 id="7">198,199,202,201</quad4>
			<quad4 id="8">199,145,144,202</quad4>
			<quad4 id="9">159,200,203,160</quad4>
			<quad4 id="10">200,201,204,203</quad4>
			<quad4 id="11">201,202,205,204</quad4>
			<quad4 id="12">202,144,143,205</quad4>
			<quad4 id="13">160,203,169,133</quad4>
			<quad4 id="14">203,204,168,169</quad4>
			<quad4 id="15">204,205,167,168</quad4>
			<quad4 id="16">205,143,130,167</quad4>
		</Surface>
		<Surface name="PeriodicBoundary2Secondary">
			<quad4 id="1">127,146,179,137</quad4>
			<quad4 id="2">146,147,180,179</quad4>
			<quad4 id="3">147,148,181,180</quad4>
			<quad4 id="4">148,128,149,181</quad4>
			<quad4 id="5">137,179,182,138</quad4>
			<quad4 id="6">179,180,183,182</quad4>
			<quad4 id="7">180,181,184,183</quad4>
			<quad4 id="8">181,149,150,184</quad4>
			<quad4 id="9">138,182,185,139</quad4>
			<quad4 id="10">182,183,186,185</quad4>
			<quad4 id="11">183,184,187,186</quad4>
			<quad4 id="12">184,150,151,187</quad4>
			<quad4 id="13">139,185,154,131</quad4>
			<quad4 id="14">185,186,153,154</quad4>
			<quad4 id="15">186,187,152,153</quad4>
			<quad4 id="16">187,151,132,152</quad4>
		</Surface>
		<Surface name="PeriodicBoundary3Primary">
			<quad4 id="1">4,39,72,33</quad4>
			<quad4 id="2">39,40,73,72</quad4>
			<quad4 id="3">40,41,74,73</quad4>
			<quad4 id="4">41,1,20,74</quad4>
			<quad4 id="5">33,72,75,34</quad4>
			<quad4 id="6">72,73,76,75</quad4>
			<quad4 id="7">73,74,77,76</quad4>
			<quad4 id="8">74,20,19,77</quad4>
			<quad4 id="9">34,75,78,35</quad4>
			<quad4 id="10">75,76,79,78</quad4>
			<quad4 id="11">76,77,80,79</quad4>
			<quad4 id="12">77,19,18,80</quad4>
			<quad4 id="13">35,78,44,8</quad4>
			<quad4 id="14">78,79,43,44</quad4>
			<quad4 id="15">79,80,42,43</quad4>
			<quad4 id="16">80,18,5,42</quad4>
		</Surface>
		<Surface name="PeriodicBoundary3Secondary">
			<quad4 id="1">2,21,54,12</quad4>
			<quad4 id="2">21,22,55,54</quad4>
			<quad4 id="3">22,23,56,55</quad4>
			<quad4 id="4">23,3,24,56</quad4>
			<quad4 id="5">12,54,57,13</quad4>
			<quad4 id="6">54,55,58,57</quad4>
			<quad4 id="7">55,56,59,58</quad4>
			<quad4 id="8">56,24,25,59</quad4>
			<quad4 id="9">13,57,60,14</quad4>
			<quad4 id="10">57,58,61,60</quad4>
			<quad4 id="11">58,59,62,61</quad4>
			<quad4 id="12">59,25,26,62</quad4>
			<quad4 id="13">14,60,29,6</quad4>
			<quad4 id="14">60,61,28,29</quad4>
			<quad4 id="15">61,62,27,28</quad4>
			<quad4 id="16">62,26,7,27</quad4>
		</Surface>
		<PartList name="SlidingElastic1Primary">Part15</PartList>
		<PartList name="SlidingElastic1Secondary">Part4</PartList>
		<SurfacePair name="SlidingElastic1">
			<primary>@part_list:SlidingElastic1Primary</primary>
			<secondary>@part_list:SlidingElastic1Secondary</secondary>
		</SurfacePair>
		<SurfacePair name="PeriodicBoundary2">
			<primary>PeriodicBoundary2Primary</primary>
			<secondary>PeriodicBoundary2Secondary</secondary>
		</SurfacePair>
		<SurfacePair name="PeriodicBoundary3">
			<primary>PeriodicBoundary3Primary</primary>
			<secondary>PeriodicBoundary3Secondary</secondary>
		</SurfacePair>
	</Mesh>
	<MeshDomains>
		<SolidDomain name="Part4" mat="Material2"/>
		<SolidDomain name="Part15" mat="Material1"/>
	</MeshDomains>
	<Boundary>
		<bc name="ZeroDisplacement1" node_set="@surface:ZeroDisplacement1" type="zero displacement">
			<x_dof>1</x_dof>
			<y_dof>1</y_dof>
			<z_dof>1</z_dof>
		</bc>
		<bc name="ZeroDisplacement2" node_set="@surface:ZeroDisplacement2" type="zero displacement">
			<x_dof>1</x_dof>
			<y_dof>1</y_dof>
			<z_dof>0</z_dof>
		</bc>
		<bc name="PrescribedDisplacement3" node_set="@surface:PrescribedDisplacement3" type="prescribed displacement">
			<dof>z</dof>
			<value lc="1">-0.05</value>
			<relative>0</relative>
		</bc>
	</Boundary>
	<Contact>
		<contact name="SlidingElastic1" surface_pair="SlidingElastic1" type="sliding-elastic">
			<laugon>AUGLAG</laugon>
			<tolerance>0.1</tolerance>
			<gaptol>0</gaptol>
			<penalty>200</penalty>
			<auto_penalty>1</auto_penalty>
			<update_penalty>0</update_penalty>
			<two_pass>0</two_pass>
			<knmult>0</knmult>
			<search_tol>0.01</search_tol>
			<symmetric_stiffness>0</symmetric_stiffness>
			<search_radius>1</search_radius>
			<seg_up>0</seg_up>
			<tension>0</tension>
			<minaug>0</minaug>
			<maxaug>10</maxaug>
			<node_reloc>0</node_reloc>
			<fric_coeff>1.2</fric_coeff>
			<smooth_aug>0</smooth_aug>
			<flip_primary>0</flip_primary>
			<flip_secondary>0</flip_secondary>
			<shell_bottom_primary>0</shell_bottom_primary>
			<shell_bottom_secondary>0</shell_bottom_secondary>
			<offset>0</offset>
		</contact>
		<contact name="PeriodicBoundary2" surface_pair="PeriodicBoundary2" type="periodic boundary">
			<laugon>AUGLAG</laugon>
			<tolerance>1</tolerance>
			<penalty>0</penalty>
			<two_pass>0</two_pass>
			<offset>0,0,0</offset>
			<minaug>0</minaug>
		</contact>
		<contact name="PeriodicBoundary3" surface_pair="PeriodicBoundary3" type="periodic boundary">
			<laugon>AUGLAG</laugon>
			<tolerance>1</tolerance>
			<penalty>0</penalty>
			<two_pass>0</two_pass>
			<offset>0,0,0</offset>
			<minaug>0</minaug>
		</contact>
	</Contact>
	<LoadData>
		<load_controller id="1" name="LC1" type="loadcurve">
			<interpolate>LINEAR</interpolate>
			<extend>CONSTANT</extend>
			<points>
				<pt>0,0</pt>
				<pt>1,1</pt>
			</points>
		</load_controller>
	</LoadData>
	<Output>
		<plotfile type="febio">
			<var type="displacement"/>
			<var type="stress"/>
			<var type="relative volume"/>
			<var type="contact pressure"/>
			<var type="contact gap"/>
		</plotfile>
	</Output>
</febio_spec>
